%%%%%%%%%%%%%%%%%%%%%%%%%%%%%%%%%%%%%%%%%%%%%%%%%%%%%%%%%%%%%%%%%%%%%%%%%%%%%%%%
%                                                                              %
% SU2 configuration file                                                       %
% Case description: Steady incompressible laminar flow around a cylinder       %
% Author: Pierre Schrooyen   						                           %
% File Version 8.1.0 "Harrier"                                                 %
%                                                                              %
%%%%%%%%%%%%%%%%%%%%%%%%%%%%%%%%%%%%%%%%%%%%%%%%%%%%%%%%%%%%%%%%%%%%%%%%%%%%%%%%

% ------------- DIRECT, ADJOINT, AND LINEARIZED PROBLEM DEFINITION ------------%
%
SOLVER= INC_NAVIER_STOKES
KIND_TURB_MODEL= NONE
MATH_PROBLEM= DIRECT
RESTART_SOL= NO

% ------------------------- UNSTEADY SIMULATION -------------------------------%
%
TIME_DOMAIN = YES
TIME_MARCHING= DUAL_TIME_STEPPING-2ND_ORDER
TIME_STEP= 0.05
MAX_TIME= 40
INNER_ITER= 5

% ---------------- INCOMPRESSIBLE FLOW CONDITION DEFINITION -------------------%
%
INC_DENSITY_INIT= 1
INC_VELOCITY_INIT= ( 0.2, 0.0, 0.0 )
% --------------------------- VISCOSITY MODEL ---------------------------------%
%
VISCOSITY_MODEL= CONSTANT_VISCOSITY
%MU_CONSTANT= 0.001
MU_CONSTANT= 0.000108108


% ---------------------- REFERENCE VALUE DEFINITION ---------------------------%
%
%REF_ORIGIN_MOMENT_X = 0.5
%REF_ORIGIN_MOMENT_Y = 0.5
%REF_ORIGIN_MOMENT_Z = 0.00
%REF_LENGTH= 1
REF_AREA= 0.1 %diameter of cylinder

% -------------------- BOUNDARY CONDITION DEFINITION --------------------------%
%

% No-slip Wall
MARKER_HEATFLUX= ( cylinder,0.0,wall,0.0 )

% Slip wall
%MARKER_EULER= ( wall )

%Inlet
% File specifying inlet profile (go check https://su2code.github.io/tutorials/Inc_Laminar_Step/)
% make sure the point in your inlet.dat does correspond to the nodes of your mesh (running su2 without inlet.dat will create a template you can fill)
SPECIFIED_INLET_PROFILE= YES
INLET_FILENAME= inlet.dat

INC_INLET_TYPE= VELOCITY_INLET
MARKER_INLET= ( inlet, 300, 0.3, 1.0, 0.0, 0.0 ) 
%only without file

%Outlet
INC_OUTLET_TYPE= PRESSURE_OUTLET
MARKER_OUTLET= ( outlet, 0.0 )

% Marker definition for plot/analysis
MARKER_PLOTTING= ( cylinder )
MARKER_MONITORING= ( cylinder )

% ------------- COMMON PARAMETERS DEFINING THE NUMERICAL METHOD ---------------%
%
NUM_METHOD_GRAD= GREEN_GAUSS
CFL_NUMBER= 100
CFL_ADAPT= NO
CFL_ADAPT_PARAM= ( 0.8, 1.3, 1, 100.0 ) %(Initial number of iterations before CFL adaptation begins, Reduction factor if instabilities are detected, Growth factor if the solution is stable, Maximum allowed value)
RK_ALPHA_COEFF= ( 0.66667, 0.66667, 1.000000 ) %three-stage explicit Runge-Kutta scheme
TIME_ITER= 3000
VENKAT_LIMITER_COEFF= 0.01


% -------------------- FLOW NUMERICAL METHOD DEFINITION -----------------------%
%
CONV_NUM_METHOD_FLOW= FDS
MUSCL_FLOW= YES
SLOPE_LIMITER_FLOW= NONE
JST_SENSOR_COEFF= ( 0.5, 0.04 )
TIME_DISCRE_FLOW= EULER_IMPLICIT

% --------------------------- CONVERGENCE PARAMETERS --------------------------%
%
CONV_RESIDUAL_MINVAL= -10
CONV_STARTITER= 10
CONV_CAUCHY_ELEMS= 100
CONV_CAUCHY_EPS= 1E-6

% ------------------------- INPUT/OUTPUT INFORMATION --------------------------%
%
MESH_FILENAME= cilinder_meshV4.su2
MESH_FORMAT= SU2

SOLUTION_FILENAME= solution_flowV1.dat
TABULAR_FORMAT= CSV

CONV_FILENAME= history
HISTORY_OUTPUT= (INNER_ITER, RMS_PRESSURE, RMS_VELOCITY-X,RMS_VELOCITY-Y, LIFT, DRAG,CFL_NUMBER,TIME_ITER,CUR_TIME)
RESTART_FILENAME= restart_flow.dat
VOLUME_FILENAME= flow
SURFACE_FILENAME= surface_flow

OUTPUT_WRT_FREQ= 100
WRT_FORCES_BREAKDOWN= YES

OUTPUT_FILES= (RESTART, RESTART_ASCII, PARAVIEW_ASCII,SURFACE_PARAVIEW_ASCII)
SCREEN_OUTPUT= (TIME_ITER, INNER_ITER, RMS_PRESSURE, RMS_VELOCITY-X, LIFT, DRAG, CFL_NUMBER)





