%%%%%%%%%%%%%%%%%%%%%%%%%%%%%%%%%%%%%%%%%%%%%%%%%%%%%%%%%%%%%%%%%%%%%%%%%%%%%%%%
%                                                                              %
% SU2 configuration file                                                       %
% Case description: Steady incompressible laminar flow around a cylinder       %
% Author: Pierre Schrooyen                                                     %
% File Version 8.1.0 "Harrier"                                                 %
%                                                                              %
%%%%%%%%%%%%%%%%%%%%%%%%%%%%%%%%%%%%%%%%%%%%%%%%%%%%%%%%%%%%%%%%%%%%%%%%%%%%%%%%
 
% ------------- DIRECT, ADJOINT, AND LINEARIZED PROBLEM DEFINITION ------------%
%
SOLVER= INC_NAVIER_STOKES
KIND_TURB_MODEL= NONE
MATH_PROBLEM= DIRECT
RESTART_SOL= NO
 
% ---------------- INCOMPRESSIBLE FLOW CONDITION DEFINITION -------------------%
%
INC_DENSITY_INIT= 1.0
INC_VELOCITY_INIT= (0.2, 0.0, 0.0 )
 
% --------------------------- VISCOSITY MODEL ---------------------------------%
%
VISCOSITY_MODEL= CONSTANT_VISCOSITY
MU_CONSTANT= 0.000162162
 
% ---------------------- REFERENCE VALUE DEFINITION ---------------------------%
%
REF_ORIGIN_MOMENT_X = 0.5
REF_ORIGIN_MOMENT_Y = 0.5
REF_ORIGIN_MOMENT_Z = 0.00
REF_LENGTH= 0.1
REF_AREA= 0.1
% -------------------- BOUNDARY CONDITION DEFINITION --------------------------%
%
 
% No-slip Wall
MARKER_HEATFLUX= (Cylinder,0.0,Top,0.0,Bottom,0.0)
 
%Inlet
% File specifying inlet profile (go check https://su2code.github.io/tutorials/Inc_Laminar_Step/)
% make sure the point in your inlet.dat does correspond to the nodes of your mesh (running su2 without inlet.dat will create a template you can fill)
SPECIFIED_INLET_PROFILE= YES
INLET_FILENAME= inlet.dat
 
INC_INLET_TYPE= VELOCITY_INLET
MARKER_INLET= ( Inlet, 0, 0.2, 1.0, 0.0, 0.0 )
 
%Outlet
INC_OUTLET_TYPE= PRESSURE_OUTLET
MARKER_OUTLET= ( Outlet, 0.0 )
 
% Marker definition for plot/analysis
MARKER_PLOTTING= ( Cylinder )
MARKER_MONITORING= ( Cylinder )
 
% ------------- COMMON PARAMETERS DEFINING THE NUMERICAL METHOD ---------------%
%
NUM_METHOD_GRAD= WEIGHTED_LEAST_SQUARES
CFL_NUMBER= 1.0
CFL_ADAPT= NO
CFL_ADAPT_PARAM= ( 1, 5, 10.0, 100.0 )
RK_ALPHA_COEFF= ( 0.66667, 0.66667, 1.000000 )
%ITER= 10000
VENKAT_LIMITER_COEFF= 0.01
% ------------------------- Time-dependent Simulation -------------------------------%
%
TIME_DOMAIN= YES
%
% Numerical Method for Unsteady simulation
TIME_MARCHING= DUAL_TIME_STEPPING-2ND_ORDER
%
% Time Step for dual time stepping simulations (s)
TIME_STEP= 0.05
%
% Total Physical Time for dual time stepping simulations (s)
MAX_TIME= 60.0
%
% Number of internal iterations
INNER_ITER= 20
%
% Number of time steps
TIME_ITER= 4000
%
 
 
% -------------------- FLOW NUMERICAL METHOD DEFINITION -----------------------%
%
CONV_NUM_METHOD_FLOW= FDS
MUSCL_FLOW= YES
SLOPE_LIMITER_FLOW= NONE
JST_SENSOR_COEFF= ( 0.5, 0.04 )
TIME_DISCRE_FLOW= EULER_IMPLICIT
 
% --------------------------- CONVERGENCE PARAMETERS --------------------------%
%
CONV_RESIDUAL_MINVAL= -10
CONV_STARTITER= 10
CONV_CAUCHY_ELEMS= 100
CONV_CAUCHY_EPS= 1E-6
 
% ------------------------- INPUT/OUTPUT INFORMATION --------------------------%
%
MESH_FILENAME= Cylinder.su2
MESH_FORMAT= SU2
SOLUTION_FILENAME= solution_flow.dat
TABULAR_FORMAT= CSV
CONV_FILENAME= history
RESTART_FILENAME= restart_flow.dat
WRT_FORCES_BREAKDOWN= YES
VOLUME_FILENAME= flow
SURFACE_FILENAME= surface_flow
OUTPUT_WRT_FREQ= 10
OUTPUT_FILES= (RESTART, RESTART_ASCII, PARAVIEW_ASCII,SURFACE_PARAVIEW_ASCII)
SCREEN_OUTPUT= (INNER_ITER, RMS_PRESSURE, RMS_VELOCITY-X,VELOCITY-X,VELOCITY-Y, LIFT, DRAG)
HISTORY_OUTPUT= (INNER_ITER, RMS_PRESSURE, RMS_VELOCITY-X,RMS_VELOCITY-Y, LIFT, DRAG,CFL_NUMBER,TIME_ITER,CUR_TIME)