%%%%%%%%%%%%%%%%%%%%%%%%%%%%%%%%%%%%%%%%%%%%%%%%%%%%%%%%%%%%%%%%%%%%%%%%%%%%%%%%
%                                                                              %
% SU2 configuration file                                                       %
% Case description: Steady incompressible laminar flow around a cylinder       %
% Author: Justin Pesesse   		    				                           %
%                                                                              %
%%%%%%%%%%%%%%%%%%%%%%%%%%%%%%%%%%%%%%%%%%%%%%%%%%%%%%%%%%%%%%%%%%%%%%%%%%%%%%%%

% ------------- DIRECT, ADJOINT, AND LINEARIZED PROBLEM DEFINITION ------------%
%
SOLVER= INC_NAVIER_STOKES
KIND_TURB_MODEL= NONE
MATH_PROBLEM= DIRECT
RESTART_SOL= NO

% ------------------------- UNSTEADY SIMULATION -------------------------------%
%
TIME_DOMAIN = YES
TIME_MARCHING= DUAL_TIME_STEPPING-2ND_ORDER
TIME_STEP= 0.01
MAX_TIME= 10
INNER_ITER= 15

% ---------------- INCOMPRESSIBLE FLOW CONDITION DEFINITION -------------------%
% Used for non-dimensionalisation + Initialisation
INC_DENSITY_INIT= 1
INC_VELOCITY_INIT= ( 0.2, 0.0, 0.0 ) % x,y,z

% --------------------------- VISCOSITY MODEL ---------------------------------%
%
VISCOSITY_MODEL= CONSTANT_VISCOSITY
MU_CONSTANT= 0.000162162

% ---------------------- REFERENCE VALUE DEFINITION ---------------------------%
% Not used here (location where we want to cmpute the moments)
%REF_ORIGIN_MOMENT_X = 0.5
%REF_ORIGIN_MOMENT_Y = 0.5
%REF_ORIGIN_MOMENT_Z = 0.00
%REF_LENGTH= 1.0 % for moment non-dim
REF_AREA= 0.1 % value of the diameter since it is 2D

% -------------------- BOUNDARY CONDITION DEFINITION --------------------------%
%

% No-slip Wall
MARKER_HEATFLUX= ( Cylinder,0.0,Bottom,0.0,Top,0.0)

% Slip wall
%MARKER_EULER= ( wall )

%Inlet
% File specifying inlet profile (go check https://su2code.github.io/tutorials/Inc_Laminar_Step/)
% make sure the point in your inlet.dat does correspond to the nodes of your mesh (running su2 without inlet.dat will create a template you can fill)
SPECIFIED_INLET_PROFILE= YES
INLET_FILENAME= inlet.dat

INC_INLET_TYPE= VELOCITY_INLET
MARKER_INLET= ( Inlet, 0, 0.5, 1.0, 0.0, 0.0 )

% Outlet
INC_OUTLET_TYPE= PRESSURE_OUTLET
MARKER_OUTLET= ( Outlet, 0.0 )

% Marker definition for plot/analysis
MARKER_PLOTTING= ( Cylinder )  % Surface selection for the post-process output
MARKER_MONITORING= ( Cylinder )  % Monitoring in the terminal

% ------------- COMMON PARAMETERS DEFINING THE NUMERICAL METHOD ---------------%
%
NUM_METHOD_GRAD= GREEN_GAUSS % If unstructured mesh use WEIGHTED_LEAST_SQUARES
CFL_NUMBER= 100.0
CFL_ADAPT= NO
CFL_ADAPT_PARAM= ( 10, 0.5, 1.0, 100.0 )
RK_ALPHA_COEFF= ( 0.66667, 0.66667, 1.000000 )
TIME_ITER= 10000
VENKAT_LIMITER_COEFF= 0.01

% -------------------- FLOW NUMERICAL METHOD DEFINITION -----------------------%
%
CONV_NUM_METHOD_FLOW= FDS
MUSCL_FLOW= YES
SLOPE_LIMITER_FLOW= NONE
JST_SENSOR_COEFF= ( 0.5, 0.04 )
TIME_DISCRE_FLOW= EULER_IMPLICIT

% --------------------------- CONVERGENCE PARAMETERS --------------------------%
%
CONV_RESIDUAL_MINVAL= -10
CONV_STARTITER= 10
CONV_CAUCHY_ELEMS= 100
CONV_CAUCHY_EPS= 1E-6

% ------------------------- INPUT/OUTPUT INFORMATION --------------------------%
%
MESH_FILENAME= 10023.su2
MESH_FORMAT= SU2
SOLUTION_FILENAME= solution_flow.dat
TABULAR_FORMAT= CSV
CONV_FILENAME= history
RESTART_FILENAME= restart_flow.dat
VOLUME_FILENAME= flow
SURFACE_FILENAME= surface_flow
OUTPUT_WRT_FREQ= 100
OUTPUT_FILES= (RESTART, RESTART_ASCII, PARAVIEW_ASCII,SURFACE_PARAVIEW_ASCII)
WRT_FORCES_BREAKDOWN= YES
HISTORY_OUTPUT= (INNER_ITER, RMS_PRESSURE, RMS_VELOCITY-X,RMS_VELOCITY-Y, LIFT, DRAG)
SCREEN_OUTPUT= (INNER_ITER, RMS_PRESSURE, RMS_VELOCITY-X, LIFT, DRAG)
